<?xml version="1.0" encoding="UTF-8"?>

<!-- generated on 2024-11-07 23:09:29 by Eclipse SUMO netedit Version 1.21.0
-->

<routes xmlns:xsi="http://www.w3.org/2001/XMLSchema-instance" xsi:noNamespaceSchemaLocation="http://sumo.dlr.de/xsd/routes_file.xsd">
    <!-- VTypes -->
    <vType id="t_0" accel="3.60" tau="0.5"/>
    <vType id="t_1"/>
    <!-- Routes -->
    <route id="r_0" edges="E7 E1"/>
    <route id="r_1" edges="E2 E3 E1"/>
    <!-- Vehicles, persons and containers (sorted by depart) -->
    <flow id="f_0" type="t_0" begin="0.00" departLane="random" departSpeed="14.00" route="r_1" end="3000.00" vehsPerHour="1800"/>
    <flow id="f_1" begin="0.00" departLane="random" departSpeed="13.00" route="r_0" end="300.00" vehsPerHour="5000"/>
    <flow id="f_3" type="t_0" begin="0.00" departSpeed="9.00" route="r_1" end="3600.00" vehsPerHour="1800"/>
</routes>
