<?xml version="1.0" encoding="UTF-8"?>

<!-- generated on 2024-10-16 00:37:01 by Eclipse SUMO netedit Version 1.21.0
-->

<routes xmlns:xsi="http://www.w3.org/2001/XMLSchema-instance" xsi:noNamespaceSchemaLocation="http://sumo.dlr.de/xsd/routes_file.xsd">
    <!-- Routes -->
    <route id="r_0" edges="E0 E1"/>
    <route id="r_1" edges="E2 E3 E1"/>
    <!-- Vehicles, persons and containers (sorted by depart) -->
    <flow id="f_0" begin="0.00" route="r_0" end="3600.00" vehsPerHour="500"/>
    <flow id="f_1" begin="0.00" departLane="1" route="r_0" end="3600.00" vehsPerHour="500"/>
    <flow id="f_2" begin="0.00" departLane="2" route="r_0" end="3600.00" vehsPerHour="500"/>
    <flow id="f_3" begin="0.00" departLane="0" color="255,0,45" route="r_1" end="3600.00" vehsPerHour="500"/>
</routes>
